<?xml version="1.0" ?>
<!DOCTYPE plans
  SYSTEM 'http://www.matsim.org/files/dtd/plans_v4.dtd'>
<plans>
	<person id="worker_3rd_sector_0">
		<plan>
			<act type="h" x="-8.6239094095" y="41.1633512603" end_time="12:00:00"/>
			<leg mode="car"/>
			<act type="w" x="-8.6133344694" y="41.1695647208" end_time="20:00:00"/>
			<leg mode="car"/>
			<act type="h" x="-8.6239094095" y="41.1633512603" end_time="12:00:00"/>
		</plan>
	</person>
	<person id="worker_3rd_sector_1">
		<plan>
			<act type="h" x="-8.668310447" y="41.1667154629" end_time="07:00:00"/>
			<leg mode="car"/>
			<act type="w" x="-8.6743595946" y="41.1545960263" end_time="15:00:00"/>
			<leg mode="car"/>
			<act type="l" x="41.1520696" y="-8.6774732" end_time="16:00:00"/>
			<leg mode="car"/>
			<act type="h" x="-8.668310447" y="41.1667154629" end_time="07:00:00"/>
		</plan>
	</person>
	<person id="worker_3rd_sector_2">
		<plan>
			<act type="h" x="-8.6612442999" y="41.1535981158" end_time="08:00:00"/>
			<leg mode="car"/>
			<act type="w" x="-8.5821356" y="41.1742172" end_time="12:00:00"/>
			<leg mode="car"/>
			<act type="h" x="-8.6612442999" y="41.1535981158" end_time="08:00:00"/>
		</plan>
	</person>
	<person id="worker_3rd_sector_3">
		<plan>
			<act type="h" x="-8.6407050802" y="41.1787440981" end_time="08:00:00"/>
			<leg mode="car"/>
			<act type="w" x="-8.6065390249" y="41.1493011106" end_time="16:00:00"/>
			<leg mode="car"/>
			<act type="s" x="41.1645376" y="-8.6021856" end_time="17:00:00"/>
			<leg mode="car"/>
			<act type="h" x="-8.6407050802" y="41.1787440981" end_time="08:00:00"/>
		</plan>
	</person>
	<person id="worker_3rd_sector_4">
		<plan>
			<act type="h" x="-8.6257483642" y="41.1766186699" end_time="09:00:00"/>
			<leg mode="car"/>
			<act type="w" x="-8.6018861" y="41.147053" end_time="17:00:00"/>
			<leg mode="car"/>
			<act type="l" x="41.1418593" y="-8.6149565" end_time="18:00:00"/>
			<leg mode="car"/>
			<act type="h" x="-8.6257483642" y="41.1766186699" end_time="09:00:00"/>
		</plan>
	</person>
	<person id="worker_3rd_sector_5">
		<plan>
			<act type="h" x="-8.6248393616" y="41.1789840747" end_time="14:00:00"/>
			<leg mode="car"/>
			<act type="w" x="-8.6437268" y="41.1605052" end_time="22:00:00"/>
			<leg mode="car"/>
			<act type="l" x="41.1480652" y="-8.6495702" end_time="23:00:00"/>
			<leg mode="car"/>
			<act type="h" x="-8.6248393616" y="41.1789840747" end_time="14:00:00"/>
		</plan>
	</person>
	<person id="worker_3rd_sector_6">
		<plan>
			<act type="h" x="-8.6482805146" y="41.1592865599" end_time="09:00:00"/>
			<leg mode="car"/>
			<act type="w" x="-8.6045949" y="41.1549876" end_time="15:00:00"/>
			<leg mode="car"/>
			<act type="h" x="-8.6482805146" y="41.1592865599" end_time="09:00:00"/>
		</plan>
	</person>
	<person id="worker_3rd_sector_7">
		<plan>
			<act type="h" x="-8.6527384988" y="41.16681169" end_time="07:00:00"/>
			<leg mode="car"/>
			<act type="w" x="-8.6675560821" y="41.1614877754" end_time="15:00:00"/>
			<leg mode="car"/>
			<act type="h" x="-8.6527384988" y="41.16681169" end_time="07:00:00"/>
		</plan>
	</person>
	<person id="worker_3rd_sector_8">
		<plan>
			<act type="h" x="-8.664177825" y="41.1587750478" end_time="08:00:00"/>
			<leg mode="car"/>
			<act type="w" x="-8.6291829" y="41.1453788" end_time="16:00:00"/>
			<leg mode="car"/>
			<act type="h" x="-8.664177825" y="41.1587750478" end_time="08:00:00"/>
		</plan>
	</person>
	<person id="reformed_9">
		<plan>
			<act type="h" x="-8.6383429493" y="41.1667157629" end_time="09:00:00"/>
			<leg mode="car"/>
			<act type="l" x="41.1505863" y="-8.6312145" end_time="11:00:00"/>
			<leg mode="car"/>
			<act type="s" x="41.1505863" y="-8.6312145" end_time="13:00:00"/>
			<leg mode="car"/>
			<act type="h" x="-8.6383429493" y="41.1667157629" end_time="09:00:00"/>
		</plan>
	</person>
	<person id="worker_3rd_sector_10">
		<plan>
			<act type="h" x="-8.6294440438" y="41.1633158513" end_time="10:00:00"/>
			<leg mode="car"/>
			<act type="w" x="-8.6660235" y="41.1478703" end_time="16:00:00"/>
			<leg mode="car"/>
			<act type="s" x="41.1651166" y="-8.6706218" end_time="19:00:00"/>
			<leg mode="car"/>
			<act type="h" x="-8.6294440438" y="41.1633158513" end_time="10:00:00"/>
		</plan>
	</person>
	<person id="worker_3rd_sector_11">
		<plan>
			<act type="h" x="-8.636713154" y="41.1724279434" end_time="06:00:00"/>
			<leg mode="car"/>
			<act type="w" x="-8.5876506" y="41.1720903" end_time="12:00:00"/>
			<leg mode="car"/>
			<act type="s" x="41.1609184" y="-8.592717" end_time="14:00:00"/>
			<leg mode="car"/>
			<act type="h" x="-8.636713154" y="41.1724279434" end_time="06:00:00"/>
		</plan>
	</person>
	<person id="worker_3rd_sector_12">
		<plan>
			<act type="h" x="-8.6352350439" y="41.1730402776" end_time="09:00:00"/>
			<leg mode="car"/>
			<act type="w" x="-8.6304903311" y="41.1541910514" end_time="17:00:00"/>
			<leg mode="car"/>
			<act type="s" x="41.149729" y="-8.616759" end_time="17:00:00"/>
			<leg mode="car"/>
			<act type="l" x="41.149729" y="-8.616759" end_time="21:00:00"/>
			<leg mode="car"/>
			<act type="h" x="-8.6352350439" y="41.1730402776" end_time="09:00:00"/>
		</plan>
	</person>
	<person id="worker_3rd_sector_13">
		<plan>
			<act type="h" x="-8.6658983992" y="41.1538033954" end_time="07:00:00"/>
			<leg mode="car"/>
			<act type="w" x="-8.6439977452" y="41.1644339789" end_time="15:00:00"/>
			<leg mode="car"/>
			<act type="h" x="-8.6658983992" y="41.1538033954" end_time="07:00:00"/>
		</plan>
	</person>
	<person id="reformed_14">
		<plan>
			<act type="h" x="-8.6245539571" y="41.1758029877" end_time="09:00:00"/>
			<leg mode="car"/>
			<act type="m" x="41.1603678567" y="-8.6304939197" end_time="11:00:00"/>
			<leg mode="car"/>
			<act type="h" x="-8.6245539571" y="41.1758029877" end_time="09:00:00"/>
		</plan>
	</person>
	<person id="worker_3rd_sector_15">
		<plan>
			<act type="h" x="-8.6238478056" y="41.1780778755" end_time="08:00:00"/>
			<leg mode="car"/>
			<act type="w" x="-8.6555385" y="41.1663731" end_time="16:00:00"/>
			<leg mode="car"/>
			<act type="h" x="-8.6238478056" y="41.1780778755" end_time="08:00:00"/>
		</plan>
	</person>
	<person id="worker_3rd_sector_16">
		<plan>
			<act type="h" x="-8.6697830649" y="41.1555292283" end_time="07:00:00"/>
			<leg mode="car"/>
			<act type="w" x="-8.5845441463" y="41.1712414188" end_time="15:00:00"/>
			<leg mode="car"/>
			<act type="h" x="-8.6697830649" y="41.1555292283" end_time="07:00:00"/>
		</plan>
	</person>
	<person id="worker_3rd_sector_17">
		<plan>
			<act type="h" x="-8.637706942" y="41.1710355541" end_time="07:00:00"/>
			<leg mode="car"/>
			<act type="w" x="-8.6529503" y="41.1669707" end_time="15:00:00"/>
			<leg mode="car"/>
			<act type="s" x="41.162426" y="-8.6538977" end_time="17:00:00"/>
			<leg mode="car"/>
			<act type="l" x="41.162426" y="-8.6538977" end_time="19:00:00"/>
			<leg mode="car"/>
			<act type="h" x="-8.637706942" y="41.1710355541" end_time="07:00:00"/>
		</plan>
	</person>
	<person id="reformed_18">
		<plan>
			<act type="h" x="-8.6655102957" y="41.1763192974" end_time="08:00:00"/>
			<leg mode="car"/>
			<act type="s" x="41.1713352" y="-8.66616" end_time="08:00:00"/>
			<leg mode="car"/>
			<act type="h" x="-8.6655102957" y="41.1763192974" end_time="08:00:00"/>
		</plan>
	</person>
	<person id="worker_3rd_sector_19">
		<plan>
			<act type="h" x="-8.6637662367" y="41.1640633316" end_time="08:00:00"/>
			<leg mode="car"/>
			<act type="w" x="-8.6156942" y="41.1423583" end_time="16:00:00"/>
			<leg mode="car"/>
			<act type="l" x="41.1499342" y="-8.6131721" end_time="19:00:00"/>
			<leg mode="car"/>
			<act type="h" x="-8.6637662367" y="41.1640633316" end_time="08:00:00"/>
		</plan>
	</person>
	<person id="worker_3rd_sector_20">
		<plan>
			<act type="h" x="-8.6597911871" y="41.1742613517" end_time="06:00:00"/>
			<leg mode="car"/>
			<act type="w" x="-8.6553309066" y="41.158212666" end_time="14:00:00"/>
			<leg mode="car"/>
			<act type="h" x="-8.6597911871" y="41.1742613517" end_time="06:00:00"/>
		</plan>
	</person>
	<person id="worker_3rd_sector_21">
		<plan>
			<act type="h" x="-8.5905299657" y="41.1647784304" end_time="07:00:00"/>
			<leg mode="car"/>
			<act type="w" x="-8.6190867671" y="41.1470454295" end_time="15:00:00"/>
			<leg mode="car"/>
			<act type="h" x="-8.5905299657" y="41.1647784304" end_time="07:00:00"/>
		</plan>
	</person>
	<person id="worker_3rd_sector_22">
		<plan>
			<act type="h" x="-8.6411640575" y="41.1598668681" end_time="10:00:00"/>
			<leg mode="car"/>
			<act type="w" x="-8.6256571" y="41.1691761" end_time="18:00:00"/>
			<leg mode="car"/>
			<act type="h" x="-8.6411640575" y="41.1598668681" end_time="10:00:00"/>
		</plan>
	</person>
	<person id="worker_3rd_sector_23">
		<plan>
			<act type="h" x="-8.6405393171" y="41.1770993382" end_time="08:00:00"/>
			<leg mode="car"/>
			<act type="w" x="-8.5864551" y="41.1493709" end_time="14:00:00"/>
			<leg mode="car"/>
			<act type="h" x="-8.6405393171" y="41.1770993382" end_time="08:00:00"/>
		</plan>
	</person>
	<person id="worker_3rd_sector_24">
		<plan>
			<act type="h" x="-8.6319304432" y="41.167156313" end_time="10:00:00"/>
			<leg mode="car"/>
			<act type="w" x="-8.6552784" y="41.1737405" end_time="18:00:00"/>
			<leg mode="car"/>
			<act type="h" x="-8.6319304432" y="41.167156313" end_time="10:00:00"/>
		</plan>
	</person>
	<person id="reformed_25">
		<plan>
			<act type="h" x="-8.6545995583" y="41.1634160812" end_time="09:00:00"/>
			<leg mode="car"/>
			<act type="s" x="41.1633149" y="-8.6479761" end_time="11:00:00"/>
			<leg mode="car"/>
			<act type="m" x="41.1633149" y="-8.6479761" end_time="12:00:00"/>
			<leg mode="car"/>
			<act type="h" x="-8.6545995583" y="41.1634160812" end_time="09:00:00"/>
		</plan>
	</person>
	<person id="worker_3rd_sector_26">
		<plan>
			<act type="h" x="-8.6238252441" y="41.179740497" end_time="10:00:00"/>
			<leg mode="car"/>
			<act type="w" x="-8.6017507675" y="41.1556472111" end_time="18:00:00"/>
			<leg mode="car"/>
			<act type="h" x="-8.6238252441" y="41.179740497" end_time="10:00:00"/>
		</plan>
	</person>
	<person id="worker_3rd_sector_27">
		<plan>
			<act type="h" x="-8.6473675101" y="41.1527745149" end_time="09:00:00"/>
			<leg mode="car"/>
			<act type="w" x="-8.6060265" y="41.159225" end_time="17:00:00"/>
			<leg mode="car"/>
			<act type="h" x="-8.6473675101" y="41.1527745149" end_time="09:00:00"/>
		</plan>
	</person>
	<person id="worker_3rd_sector_28">
		<plan>
			<act type="h" x="-8.6329971653" y="41.1699491472" end_time="07:00:00"/>
			<leg mode="car"/>
			<act type="w" x="-8.6878721" y="41.1715005" end_time="13:00:00"/>
			<leg mode="car"/>
			<act type="s" x="41.1575042" y="-8.6812217" end_time="13:00:00"/>
			<leg mode="car"/>
			<act type="h" x="-8.6329971653" y="41.1699491472" end_time="07:00:00"/>
		</plan>
	</person>
	<person id="worker_3rd_sector_29">
		<plan>
			<act type="h" x="-8.6325013606" y="41.1659930356" end_time="08:00:00"/>
			<leg mode="car"/>
			<act type="w" x="-8.5982571741" y="41.1818327749" end_time="16:00:00"/>
			<leg mode="car"/>
			<act type="h" x="-8.6325013606" y="41.1659930356" end_time="08:00:00"/>
		</plan>
	</person>
	<person id="worker_3rd_sector_30">
		<plan>
			<act type="h" x="-8.6374279055" y="41.1625425406" end_time="09:00:00"/>
			<leg mode="car"/>
			<act type="w" x="-8.5778414896" y="41.1719822929" end_time="17:00:00"/>
			<leg mode="car"/>
			<act type="s" x="41.1626202" y="-8.5905056" end_time="18:00:00"/>
			<leg mode="car"/>
			<act type="h" x="-8.6374279055" y="41.1625425406" end_time="09:00:00"/>
		</plan>
	</person>
	<person id="worker_3rd_sector_31">
		<plan>
			<act type="h" x="-8.6437786714" y="41.1557768229" end_time="09:00:00"/>
			<leg mode="car"/>
			<act type="w" x="-8.6721308" y="41.1501889" end_time="17:00:00"/>
			<leg mode="car"/>
			<act type="h" x="-8.6437786714" y="41.1557768229" end_time="09:00:00"/>
		</plan>
	</person>
	<person id="reformed_32">
		<plan>
			<act type="h" x="-8.6629514857" y="41.1527206073" end_time="08:00:00"/>
			<leg mode="car"/>
			<act type="l" x="41.1633298" y="-8.6672972" end_time="11:00:00"/>
			<leg mode="car"/>
			<act type="h" x="-8.6629514857" y="41.1527206073" end_time="08:00:00"/>
		</plan>
	</person>
</plans>
